38
 i =       47, E =      -681.3585857214
 C    4.981753    2.908278   -0.277402
 C    6.216059    2.194760   -0.276015
 C    7.448483    2.908195   -0.290085
 C    8.682086    2.192169   -0.256576
 C    9.923164    2.904294   -0.261156
 C   11.164454    2.192501   -0.243278
 C   12.397627    2.908813   -0.269707
 C    4.981625    4.334057   -0.284813
 C    6.214752    5.048580   -0.312064
 C    7.446768    4.335443   -0.327978
 C    8.679043    5.055324   -0.368844
 C    9.923244    4.340733   -0.344300
 C   11.166959    5.055443   -0.351561
 C   12.399083    4.335717   -0.305839
 C   13.630755    5.048502   -0.294036
 C    6.217178    6.474923   -0.318423
 C    7.451171    7.188765   -0.351250
 C    8.685477    6.480986   -0.387246
 C    9.922653    7.189408   -0.381947
 C   11.160041    6.480261   -0.367185
 C   12.394626    7.188670   -0.328170
 C   13.628500    6.474881   -0.299926
 C   14.862946    7.186366   -0.278390
 C    7.452659    8.613734   -0.327664
 C    8.687918    9.325068   -0.328883
 C    9.923387    8.613227   -0.349182
 C   11.158750    9.324957   -0.320514
 C   12.393731    8.613362   -0.311885
 C   13.628255    9.324305   -0.284074
 C   14.862932    8.612125   -0.273737
 C   16.098455    9.324889   -0.262241
 C    8.688671   10.750628   -0.298365
 C    9.923335   11.463048   -0.290201
 C   11.158013   10.750211   -0.296041
 C   12.393120   11.463075   -0.279962
 C   13.627647   10.750622   -0.274938
 C   14.862665   11.463174   -0.261128
 C   16.098232   10.751060   -0.255054
