72
 i =       47, E =      -681.3585857214
 C    0.043673    0.055586   -0.266127
 C    1.278775    0.768465   -0.269599
 C    2.513364    0.055150   -0.276220
 C    3.747838    0.768166   -0.273201
 C    4.982708    0.054812   -0.272749
 C    6.216995    0.767670   -0.267007
 C    7.451243    0.054481   -0.256926
 C    8.686468    0.766854   -0.241935
 C    9.923294    0.055685   -0.233460
 C   11.159770    0.767492   -0.229792
 C   12.395130    0.055068   -0.242034
 C   13.629026    0.768509   -0.252709
 C    1.278826    2.194552   -0.266956
 C    2.513125    2.907753   -0.268592
 C    3.747708    2.194140   -0.271113
 C    4.981753    2.908278   -0.277402
 C    6.216059    2.194760   -0.276015
 C    7.448483    2.908195   -0.290085
 C    8.682086    2.192169   -0.256576
 C    9.923164    2.904294   -0.261156
 C   11.164454    2.192501   -0.243278
 C   12.397627    2.908813   -0.269707
 C   13.630341    2.195577   -0.260080
 C   14.864703    2.908855   -0.268038
 C    2.513165    4.334159   -0.268650
 C    3.747582    5.047641   -0.274363
 C    4.981625    4.334057   -0.284813
 C    6.214752    5.048580   -0.312064
 C    7.446768    4.335443   -0.327978
 C    8.679043    5.055324   -0.368844
 C    9.923244    4.340733   -0.344300
 C   11.166959    5.055443   -0.351561
 C   12.399083    4.335717   -0.305839
 C   13.630755    5.048502   -0.294036
 C   14.864799    4.334425   -0.274899
 C   16.098787    5.047784   -0.270158
 C    3.748401    6.473445   -0.273778
 C    4.983338    7.186566   -0.288131
 C    6.217178    6.474923   -0.318423
 C    7.451171    7.188765   -0.351250
 C    8.685477    6.480986   -0.387246
 C    9.922653    7.189408   -0.381947
 C   11.160041    6.480261   -0.367185
 C   12.394626    7.188670   -0.328170
 C   13.628500    6.474881   -0.299926
 C   14.862946    7.186366   -0.278390
 C   16.098431    6.473646   -0.269646
 C   17.333435    7.186132   -0.266307
 C    4.983730    8.612477   -0.280339
 C    6.217935    9.324827   -0.292034
 C    7.452659    8.613734   -0.327664
 C    8.687918    9.325068   -0.328883
 C    9.923387    8.613227   -0.349182
 C   11.158750    9.324957   -0.320514
 C   12.393731    8.613362   -0.311885
 C   13.628255    9.324305   -0.284074
 C   14.862932    8.612125   -0.273737
 C   16.098455    9.324889   -0.262241
 C   17.333536    8.612580   -0.262495
 C   18.568428    9.325079   -0.263633
 C    6.218678   10.751249   -0.274972
 C    7.453255   11.463807   -0.279240
 C    8.688671   10.750628   -0.298365
 C    9.923335   11.463048   -0.290201
 C   11.158013   10.750211   -0.296041
 C   12.393120   11.463075   -0.279962
 C   13.627647   10.750622   -0.274938
 C   14.862665   11.463174   -0.261128
 C   16.098232   10.751060   -0.255054
 C   17.333462   11.463987   -0.243829
 C   18.568880   10.750999   -0.252317
 C   19.803774   11.463636   -0.254259
